tests/fuzzer/corpus_json/14_very_large_impedance.json
{
  "version": "1.0",
  "type": "input",
  "is_batch": false,
  "attributes": {},
  "data": {
    "node": [
      {
        "id": 0,
        "u_rated": 10000.0
      },
      {
        "id": 1,
        "u_rated": 10000.0
      }
    ],
    "source": [
      {
        "id": 2,
        "node": 0,
        "status": 1,
        "u_ref": 1.0,
        "u_ref_angle": 0.0,
        "sk": 1000000.0,
        "rx_ratio": 0.1,
        "z01_ratio": 1.0
      }
    ],
    "line": [
      {
        "id": 3,
        "from_node": 0,
        "to_node": 1,
        "from_status": 1,
        "to_status": 1,
        "r1": 1000000000.0,
        "x1": 1000000000.0,
        "c1": 1e-09,
        "tan1": 0.0,
        "r0": 0.3,
        "x0": 0.3,
        "c0": 1e-09,
        "tan0": 0.0,
        "i_n": 400.0
      }
    ],
    "sym_load": [
      {
        "id": 4,
        "node": 1,
        "status": 1,
        "type": 0,
        "p_specified": 10000.0,
        "q_specified": 5000.0
      }
    ]
  }
}